PNNL/TaxonomyFeeders/PGE_Models/GLD Simulation Primary/GLD Simulation Primary/AT0001/AT0001_glmfile_ts.glm
//
//********************************
// A demonstration of cyme xml to Gridlab-D input
// created by: Vaibhav Donde
//

clock{
	timestamp '2000-07-17 0:00:00';
	stoptime '2000-07-18 0:00:00';
}
#set profiler=1


//********************************
// modules
//********************************
module tape;
module powerflow{
	solver_method FBS;
	default_maximum_voltage_error 1e-9;
};

//*********************************************
// Conductor Objects
//*********************************************
// OHCond_2_CU_I
object overhead_line_conductor {
	name OHCond_2_CU_I;
	resistance 0.8920559109;
	geometric_mean_radius 0.0882773952;
	diameter 0.291999416;
}

// OHCond_2_ACSR_I
object overhead_line_conductor {
	name OHCond_2_ACSR_I;
	resistance 1.3505631832;
	geometric_mean_radius 0.060464504;
	diameter 0.32499935;
}

// OHCond_715_AAC_I
object overhead_line_conductor {
	name OHCond_715_AAC_I;
	resistance 0.1324968876;
	geometric_mean_radius 0.0311920128;
	diameter 0.972998054;
}

// OHCond_1/0_ACSR_I
object overhead_line_conductor {
	name OHCond_1/0_ACSR_I;
	resistance 0.8584762571;
	geometric_mean_radius 0.053506312;
	diameter 0.397999204;
}

// OHCond_NONE
object overhead_line_conductor {
	name OHCond_NONE;
	resistance 0.0;
	geometric_mean_radius 0.0;
	diameter 0.0;
}

// OHCond_4/0_ACSR_I
object overhead_line_conductor {
	name OHCond_4/0_ACSR_I;
	resistance 0.4287883292;
	geometric_mean_radius 0.0976549808;
	diameter 0.562998874;
}

// OHCond_4_ACSR_I
object overhead_line_conductor {
	name OHCond_4_ACSR_I;
	resistance 2.1715395317;
	geometric_mean_radius 0.0524265688;
	diameter 0.2499995;
}

// OHCond_6_CU_I
object overhead_line_conductor {
	name OHCond_6_CU_I;
	resistance 2.2113584416;
	geometric_mean_radius 0.00525866;
	diameter 0.161999676;
}

// OHCond_DEFAULT
object overhead_line_conductor {
	name OHCond_DEFAULT;
	resistance 0.27792611;
	geometric_mean_radius 0.01667552;
	diameter 0.52799107;
}

// OHCond_4/0_AAC_I
object overhead_line_conductor {
	name OHCond_4/0_AAC_I;
	resistance 0.4406874934;
	geometric_mean_radius 0.015765976;
	diameter 0.521998956;
}

// OHCond_4_CU_I
object overhead_line_conductor {
	name OHCond_4_CU_I;
	resistance 1.4181103321;
	geometric_mean_radius 0.006998208;
	diameter 0.231999536;
}

// OHCond_397_AAC_I
object overhead_line_conductor {
	name OHCond_397_AAC_I;
	resistance 0.2354936969;
	geometric_mean_radius 0.0227941632;
	diameter 0.722998554;
}

// UGCable_2_AL_PEC_22KV_3P
object underground_line_conductor {
	name UGCable_2_AL_PEC_22KV_3P;
	outer_diameter 0.669290518897;
	conductor_gmr 0.01667552;
	conductor_diameter 0.52799107;
	conductor_resistance 0.27792611;
	neutral_gmr 0.01667552;
	neutral_resistance 0.27792611;
	neutral_diameter 0.52799107;
	neutral_strands 2;
}

// UGCable_1/0_AL_XLP-CONC-PVC_22KV_2P
object underground_line_conductor {
	name UGCable_1/0_AL_XLP-CONC-PVC_22KV_2P;
	outer_diameter 0.669290518897;
	conductor_gmr 0.01667552;
	conductor_diameter 0.52799107;
	conductor_resistance 0.27792611;
	neutral_gmr 0.01667552;
	neutral_resistance 0.27792611;
	neutral_diameter 0.52799107;
	neutral_strands 2;
}

// UGCable_2_AL_XLP-CONC-ENCAP-PE_22KV_2P
object underground_line_conductor {
	name UGCable_2_AL_XLP-CONC-ENCAP-PE_22KV_2P;
	outer_diameter 0.669290518897;
	conductor_gmr 0.01667552;
	conductor_diameter 0.52799107;
	conductor_resistance 0.27792611;
	neutral_gmr 0.01667552;
	neutral_resistance 0.27792611;
	neutral_diameter 0.52799107;
	neutral_strands 2;
}

// UGCable_2_AL_XLP-CONC-PVC_22KV_3P
object underground_line_conductor {
	name UGCable_2_AL_XLP-CONC-PVC_22KV_3P;
	outer_diameter 0.669290518897;
	conductor_gmr 0.01667552;
	conductor_diameter 0.52799107;
	conductor_resistance 0.27792611;
	neutral_gmr 0.01667552;
	neutral_resistance 0.27792611;
	neutral_diameter 0.52799107;
	neutral_strands 2;
}

// UGCable_1100_AL_EPR-CONC-ENCAP-PE_3P
object underground_line_conductor {
	name UGCable_1100_AL_EPR-CONC-ENCAP-PE_3P;
	outer_diameter 0.6692917;
	conductor_gmr 0.01667552;
	conductor_diameter 0.52799107;
	conductor_resistance 0.27792611;
	neutral_gmr 0.01667552;
	neutral_resistance 0.27792611;
	neutral_diameter 0.52799107;
	neutral_strands 2;
}

// UGCable_1/0_AL_XLP-CONC-PVC_22KV_3P
object underground_line_conductor {
	name UGCable_1/0_AL_XLP-CONC-PVC_22KV_3P;
	outer_diameter 0.6692917;
	conductor_gmr 0.01667552;
	conductor_diameter 0.52799107;
	conductor_resistance 0.27792611;
	neutral_gmr 0.01667552;
	neutral_resistance 0.27792611;
	neutral_diameter 0.52799107;
	neutral_strands 2;
}

// UGCable_1/0_AL_XLP-CON-ENCP-PE_22KV_2P
object underground_line_conductor {
	name UGCable_1/0_AL_XLP-CON-ENCP-PE_22KV_2P;
	outer_diameter 0.669290518897;
	conductor_gmr 0.01667552;
	conductor_diameter 0.52799107;
	conductor_resistance 0.27792611;
	neutral_gmr 0.01667552;
	neutral_resistance 0.27792611;
	neutral_diameter 0.52799107;
	neutral_strands 2;
}

// UGCable_700_AL_XLP-CONC-PVC_22KV_3P
object underground_line_conductor {
	name UGCable_700_AL_XLP-CONC-PVC_22KV_3P;
	outer_diameter 0.6692917;
	conductor_gmr 0.01667552;
	conductor_diameter 0.52799107;
	conductor_resistance 0.27792611;
	neutral_gmr 0.01667552;
	neutral_resistance 0.27792611;
	neutral_diameter 0.52799107;
	neutral_strands 2;
}

// UGCable_2_AL_XLP-CONC-CIC_22KV_2P
object underground_line_conductor {
	name UGCable_2_AL_XLP-CONC-CIC_22KV_2P;
	outer_diameter 0.669290518897;
	conductor_gmr 0.01667552;
	conductor_diameter 0.52799107;
	conductor_resistance 0.27792611;
	neutral_gmr 0.01667552;
	neutral_resistance 0.27792611;
	neutral_diameter 0.52799107;
	neutral_strands 2;
}

// UGCable_1/0_AL_EPR-CONC-ENCAP-PE_3P
object underground_line_conductor {
	name UGCable_1/0_AL_EPR-CONC-ENCAP-PE_3P;
	outer_diameter 0.669290518897;
	conductor_gmr 0.01667552;
	conductor_diameter 0.52799107;
	conductor_resistance 0.27792611;
	neutral_gmr 0.01667552;
	neutral_resistance 0.27792611;
	neutral_diameter 0.52799107;
	neutral_strands 2;
}

// UGCable_1/0_AL_XLP-PVC_22KV_3P
object underground_line_conductor {
	name UGCable_1/0_AL_XLP-PVC_22KV_3P;
	outer_diameter 0.6692917;
	conductor_gmr 0.01667552;
	conductor_diameter 0.52799107;
	conductor_resistance 0.27792611;
	neutral_gmr 0.01667552;
	neutral_resistance 0.27792611;
	neutral_diameter 0.52799107;
	neutral_strands 2;
}

// UGCable_2_AL_XLP-PVC_22KV_3P
object underground_line_conductor {
	name UGCable_2_AL_XLP-PVC_22KV_3P;
	outer_diameter 0.6692917;
	conductor_gmr 0.01667552;
	conductor_diameter 0.52799107;
	conductor_resistance 0.27792611;
	neutral_gmr 0.01667552;
	neutral_resistance 0.27792611;
	neutral_diameter 0.52799107;
	neutral_strands 2;
}

// UGCable_4/0_AL_XLP-CONC-PVC_22KV_3P
object underground_line_conductor {
	name UGCable_4/0_AL_XLP-CONC-PVC_22KV_3P;
	outer_diameter 0.6692917;
	conductor_gmr 0.01667552;
	conductor_diameter 0.52799107;
	conductor_resistance 0.27792611;
	neutral_gmr 0.01667552;
	neutral_resistance 0.27792611;
	neutral_diameter 0.52799107;
	neutral_strands 2;
}

// UGCable_DEFAULT
object underground_line_conductor {
	name UGCable_DEFAULT;
	outer_diameter 0.6692917;
	conductor_gmr 0.01667552;
	conductor_diameter 0.52799107;
	conductor_resistance 0.27792611;
	neutral_gmr 0.01667552;
	neutral_resistance 0.27792611;
	neutral_diameter 0.52799107;
	neutral_strands 2;
}

// UGCable_1000_AL_XLP-PVC_22KV_3P&N
object underground_line_conductor {
	name UGCable_1000_AL_XLP-PVC_22KV_3P&N;
	outer_diameter 0.6692917;
	conductor_gmr 0.01667552;
	conductor_diameter 0.52799107;
	conductor_resistance 0.27792611;
	neutral_gmr 0.01667552;
	neutral_resistance 0.27792611;
	neutral_diameter 0.52799107;
	neutral_strands 2;
}

// UGCable_1/0_AL_XLP-CON-ENCP-PE_22KV_3P
object underground_line_conductor {
	name UGCable_1/0_AL_XLP-CON-ENCP-PE_22KV_3P;
	outer_diameter 0.6692917;
	conductor_gmr 0.01667552;
	conductor_diameter 0.52799107;
	conductor_resistance 0.27792611;
	neutral_gmr 0.01667552;
	neutral_resistance 0.27792611;
	neutral_diameter 0.52799107;
	neutral_strands 2;
}

// UGCable_2_AL_PEC_22KV_2P
object underground_line_conductor {
	name UGCable_2_AL_PEC_22KV_2P;
	outer_diameter 0.669290518897;
	conductor_gmr 0.01667552;
	conductor_diameter 0.52799107;
	conductor_resistance 0.27792611;
	neutral_gmr 0.01667552;
	neutral_resistance 0.27792611;
	neutral_diameter 0.52799107;
	neutral_strands 2;
}

// UGCable_1/0_AL_EPR-CONC-ENCAP-PE_2P
object underground_line_conductor {
	name UGCable_1/0_AL_EPR-CONC-ENCAP-PE_2P;
	outer_diameter 0.669290518897;
	conductor_gmr 0.01667552;
	conductor_diameter 0.52799107;
	conductor_resistance 0.27792611;
	neutral_gmr 0.01667552;
	neutral_resistance 0.27792611;
	neutral_diameter 0.52799107;
	neutral_strands 2;
}

// UGCable_2_AL_XLP-CONC-CIC_22KV_3P
object underground_line_conductor {
	name UGCable_2_AL_XLP-CONC-CIC_22KV_3P;
	outer_diameter 0.669290518897;
	conductor_gmr 0.01667552;
	conductor_diameter 0.52799107;
	conductor_resistance 0.27792611;
	neutral_gmr 0.01667552;
	neutral_resistance 0.27792611;
	neutral_diameter 0.52799107;
	neutral_strands 2;
}

// UGCable_2_AL_XLP-CONC-PVC_22KV_2P
object underground_line_conductor {
	name UGCable_2_AL_XLP-CONC-PVC_22KV_2P;
	outer_diameter 0.669290518897;
	conductor_gmr 0.01667552;
	conductor_diameter 0.52799107;
	conductor_resistance 0.27792611;
	neutral_gmr 0.01667552;
	neutral_resistance 0.27792611;
	neutral_diameter 0.52799107;
	neutral_strands 2;
}

// UGCable_1/0_AL_XLP-CONC-CIC_22KV_3P
object underground_line_conductor {
	name UGCable_1/0_AL_XLP-CONC-CIC_22KV_3P;
	outer_diameter 0.6692917;
	conductor_gmr 0.01667552;
	conductor_diameter 0.52799107;
	conductor_resistance 0.27792611;
	neutral_gmr 0.01667552;
	neutral_resistance 0.27792611;
	neutral_diameter 0.52799107;
	neutral_strands 2;
}

// UGCable_1/0_AL_PEC_22KV_3P
object underground_line_conductor {
	name UGCable_1/0_AL_PEC_22KV_3P;
	outer_diameter 0.6692917;
	conductor_gmr 0.01667552;
	conductor_diameter 0.52799107;
	conductor_resistance 0.27792611;
	neutral_gmr 0.01667552;
	neutral_resistance 0.27792611;
	neutral_diameter 0.52799107;
	neutral_strands 2;
}

//*********************************************
// Line spacing objects
//*********************************************
// OHSpacing_VERTICAL_3P_52
object line_spacing {
	name OHSpacing_VERTICAL_3P_52;
	distance_AB 4.3332773592;
	distance_BC 4.3332773592;
	distance_AC 4.3332773592;
	distance_AN 4.3332773592;
	distance_BN 4.3332773592;
	distance_CN 4.3332773592;
}

// OHSpacing_TRIANGULAR_3P_52
object line_spacing {
	name OHSpacing_TRIANGULAR_3P_52;
	distance_AB 4.3332773592;
	distance_BC 4.3332773592;
	distance_AC 4.3332773592;
	distance_AN 6.6665888808;
	distance_BN 6.6665888808;
	distance_CN 6.6665888808;
}

// UGSpacing_2_AL_XLP-CONC-CIC_22KV_3P
object line_spacing {
	name UGSpacing_2_AL_XLP-CONC-CIC_22KV_3P;
	distance_AB 0.147636;
	distance_BC 0.147636;
	distance_AC 0.295272;
}

// UGSpacing_1/0_AL_PEC_22KV_3P
object line_spacing {
	name UGSpacing_1/0_AL_PEC_22KV_3P;
	distance_AB 0.147636;
	distance_BC 0.147636;
	distance_AC 0.295272;
}

// OHSpacing_HORIZONTAL_2P_88
object line_spacing {
	name OHSpacing_HORIZONTAL_2P_88;
	distance_AB 7.3332408792;
	distance_BC 7.3332408792;
	distance_AC 7.3332408792;
	distance_AN 9.9998784;
	distance_BN 9.9998784;
	distance_CN 9.9998784;
}

// UGSpacing_1/0_AL_XLP-CONC-PVC_22KV_2P
object line_spacing {
	name UGSpacing_1/0_AL_XLP-CONC-PVC_22KV_2P;
	distance_AB 0.147636;
	distance_BC 0.0;
	distance_AC 0.0;
}

// OHSpacing_TRIANGULAR_2P_30
object line_spacing {
	name OHSpacing_TRIANGULAR_2P_30;
	distance_AB 2.4999696;
	distance_BC 2.4999696;
	distance_AC 2.4999696;
	distance_AN 2.4999696;
	distance_BN 2.4999696;
	distance_CN 2.4999696;
}

// UGSpacing_2_AL_XLP-CONC-PVC_22KV_2P
object line_spacing {
	name UGSpacing_2_AL_XLP-CONC-PVC_22KV_2P;
	distance_AB 0.147636;
	distance_BC 0.0;
	distance_AC 0.0;
}

// OHSpacing_TRIANGULAR_2P_39
object line_spacing {
	name OHSpacing_TRIANGULAR_2P_39;
	distance_AB 3.24996048;
	distance_BC 3.24996048;
	distance_AC 3.24996048;
	distance_AN 3.24996048;
	distance_BN 3.24996048;
	distance_CN 3.24996048;
}

// OHSpacing_VERTICAL_2P_52
object line_spacing {
	name OHSpacing_VERTICAL_2P_52;
	distance_AB 4.33328064;
	distance_BC 4.33328064;
	distance_AC 4.33328064;
	distance_AN 5.8932616704;
	distance_BN 5.8932616704;
	distance_CN 5.8932616704;
}

// UGSpacing_1/0_AL_EPR-CONC-ENCAP-PE_3P
object line_spacing {
	name UGSpacing_1/0_AL_EPR-CONC-ENCAP-PE_3P;
	distance_AB 0.147636;
	distance_BC 0.147636;
	distance_AC 0.295272;
}

// OHSpacing_HORIZONTAL_2P_56
object line_spacing {
	name OHSpacing_HORIZONTAL_2P_56;
	distance_AB 4.66660992;
	distance_BC 4.66660992;
	distance_AC 4.66660992;
	distance_AN 6.99991488;
	distance_BN 6.99991488;
	distance_CN 6.99991488;
}

// OHSpacing_HORIZONTAL_2P_52
object line_spacing {
	name OHSpacing_HORIZONTAL_2P_52;
	distance_AB 4.3332773592;
	distance_BC 4.3332773592;
	distance_AC 4.3332773592;
	distance_AN 6.6665888808;
	distance_BN 6.6665888808;
	distance_CN 6.6665888808;
}

// OHSpacing_HORIZONTAL_3P_88
object line_spacing {
	name OHSpacing_HORIZONTAL_3P_88;
	distance_AB 7.3332408792;
	distance_BC 7.3332408792;
	distance_AC 7.3332408792;
	distance_AN 9.9998784;
	distance_BN 9.9998784;
	distance_CN 9.9998784;
}

// UGSpacing_2_AL_PEC_22KV_3P
object line_spacing {
	name UGSpacing_2_AL_PEC_22KV_3P;
	distance_AB 0.147636;
	distance_BC 0.147636;
	distance_AC 0.295272;
}

// OHSpacing_TRIANGULAR_3P_30
object line_spacing {
	name OHSpacing_TRIANGULAR_3P_30;
	distance_AB 2.4999696;
	distance_BC 2.4999696;
	distance_AC 2.4999696;
	distance_AN 4.9999392;
	distance_BN 4.9999392;
	distance_CN 4.9999392;
}

// OHSpacing_TRIANGULAR_3P_36
object line_spacing {
	name OHSpacing_TRIANGULAR_3P_36;
	distance_AB 2.99996352;
	distance_BC 2.99996352;
	distance_AC 2.99996352;
	distance_AN 4.0799503872;
	distance_BN 4.0799503872;
	distance_CN 4.0799503872;
}

// OHSpacing_TRIANGULAR_3P_35
object line_spacing {
	name OHSpacing_TRIANGULAR_3P_35;
	distance_AB 2.9166312;
	distance_BC 2.9166312;
	distance_AC 2.9166312;
	distance_AN 5.49993312;
	distance_BN 5.49993312;
	distance_CN 5.49993312;
}

// UGSpacing_DEFAULT
object line_spacing {
	name UGSpacing_DEFAULT;
	distance_AB 0.147636;
	distance_BC 0.147636;
	distance_AC 0.295272;
}

// UGSpacing_2_AL_XLP-CONC-ENCAP-PE_22KV_2P
object line_spacing {
	name UGSpacing_2_AL_XLP-CONC-ENCAP-PE_22KV_2P;
	distance_AB 0.147636;
	distance_BC 0.0;
	distance_AC 0.0;
}

// UGSpacing_1/0_AL_XLP-CON-ENCP-PE_22KV_2P
object line_spacing {
	name UGSpacing_1/0_AL_XLP-CON-ENCP-PE_22KV_2P;
	distance_AB 0.147636;
	distance_BC 0.0;
	distance_AC 0.0;
}

// UGSpacing_2_AL_XLP-CONC-CIC_22KV_2P
object line_spacing {
	name UGSpacing_2_AL_XLP-CONC-CIC_22KV_2P;
	distance_AB 0.147636;
	distance_BC 0.0;
	distance_AC 0.0;
}

// OHSpacing_HORIZONTAL_3P_52
object line_spacing {
	name OHSpacing_HORIZONTAL_3P_52;
	distance_AB 4.3332773592;
	distance_BC 4.3332773592;
	distance_AC 4.3332773592;
	distance_AN 6.6665888808;
	distance_BN 6.6665888808;
	distance_CN 6.6665888808;
}

// UGSpacing_1/0_AL_XLP-CONC-PVC_22KV_3P
object line_spacing {
	name UGSpacing_1/0_AL_XLP-CONC-PVC_22KV_3P;
	distance_AB 0.147636;
	distance_BC 0.147636;
	distance_AC 0.295272;
}

// UGSpacing_2_AL_XLP-PVC_22KV_3P
object line_spacing {
	name UGSpacing_2_AL_XLP-PVC_22KV_3P;
	distance_AB 0.147636;
	distance_BC 0.147636;
	distance_AC 0.295272;
}

// OHSpacing_HORIZONTAL_2P_30
object line_spacing {
	name OHSpacing_HORIZONTAL_2P_30;
	distance_AB 2.4999696;
	distance_BC 2.4999696;
	distance_AC 2.4999696;
	distance_AN 3.399958656;
	distance_BN 3.399958656;
	distance_CN 3.399958656;
}

// UGSpacing_2_AL_XLP-CONC-PVC_22KV_3P
object line_spacing {
	name UGSpacing_2_AL_XLP-CONC-PVC_22KV_3P;
	distance_AB 0.147636;
	distance_BC 0.147636;
	distance_AC 0.295272;
}

// UGSpacing_1/0_AL_EPR-CONC-ENCAP-PE_2P
object line_spacing {
	name UGSpacing_1/0_AL_EPR-CONC-ENCAP-PE_2P;
	distance_AB 0.147636;
	distance_BC 0.0;
	distance_AC 0.0;
}

// UGSpacing_1/0_AL_XLP-PVC_22KV_3P
object line_spacing {
	name UGSpacing_1/0_AL_XLP-PVC_22KV_3P;
	distance_AB 0.147636;
	distance_BC 0.147636;
	distance_AC 0.295272;
}

// UGSpacing_1100_AL_EPR-CONC-ENCAP-PE_3P
object line_spacing {
	name UGSpacing_1100_AL_EPR-CONC-ENCAP-PE_3P;
	distance_AB 0.147636;
	distance_BC 0.147636;
	distance_AC 0.295272;
}

// UGSpacing_1000_AL_XLP-PVC_22KV_3P&N
object line_spacing {
	name UGSpacing_1000_AL_XLP-PVC_22KV_3P&N;
	distance_AB 0.147636;
	distance_BC 0.147636;
	distance_AC 0.295272;
}

// UGSpacing_1/0_AL_XLP-CON-ENCP-PE_22KV_3P
object line_spacing {
	name UGSpacing_1/0_AL_XLP-CON-ENCP-PE_22KV_3P;
	distance_AB 0.147636;
	distance_BC 0.147636;
	distance_AC 0.295272;
}

// UGSpacing_2_AL_PEC_22KV_2P
object line_spacing {
	name UGSpacing_2_AL_PEC_22KV_2P;
	distance_AB 0.147636;
	distance_BC 0.0;
	distance_AC 0.0;
}

// UGSpacing_4/0_AL_XLP-CONC-PVC_22KV_3P
object line_spacing {
	name UGSpacing_4/0_AL_XLP-CONC-PVC_22KV_3P;
	distance_AB 0.147636;
	distance_BC 0.147636;
	distance_AC 0.295272;
}

// UGSpacing_700_AL_XLP-CONC-PVC_22KV_3P
object line_spacing {
	name UGSpacing_700_AL_XLP-CONC-PVC_22KV_3P;
	distance_AB 0.147636;
	distance_BC 0.147636;
	distance_AC 0.295272;
}

// UGSpacing_1/0_AL_XLP-CONC-CIC_22KV_3P
object line_spacing {
	name UGSpacing_1/0_AL_XLP-CONC-CIC_22KV_3P;
	distance_AB 0.147636;
	distance_BC 0.147636;
	distance_AC 0.295272;
}

//*********************************************
// Line Config objects
//*********************************************
// L_1100006475_LineConfig
object line_configuration {
	name L_1100006475_LineConfig;
	conductor_A OHCond_397_AAC_I;
	conductor_B OHCond_397_AAC_I;
	conductor_C OHCond_397_AAC_I;
	conductor_N OHCond_NONE;
	spacing OHSpacing_VERTICAL_3P_52;
}

// L_1100043113_LineConfig
object line_configuration {
	name L_1100043113_LineConfig;
	conductor_A OHCond_4_ACSR_I;
	conductor_B OHCond_4_ACSR_I;
	conductor_C OHCond_NONE;
	conductor_N OHCond_NONE;
	spacing OHSpacing_HORIZONTAL_2P_30;
}

// L_1100006477_LineConfig
object line_configuration {
	name L_1100006477_LineConfig;
	conductor_A OHCond_4_ACSR_I;
	conductor_B OHCond_4_ACSR_I;
	conductor_C OHCond_4_ACSR_I;
	conductor_N OHCond_NONE;
	spacing OHSpacing_TRIANGULAR_3P_36;
}

// L_1100125706_LineConfig
object line_configuration {
	name L_1100125706_LineConfig;
	conductor_A OHCond_715_AAC_I;
	conductor_B OHCond_715_AAC_I;
	conductor_C OHCond_715_AAC_I;
	conductor_N OHCond_NONE;
	spacing OHSpacing_HORIZONTAL_3P_52;
}

// L_1100168795_LineConfig
object line_configuration {
	name L_1100168795_LineConfig;
	conductor_A OHCond_397_AAC_I;
	conductor_B OHCond_397_AAC_I;
	conductor_C OHCond_397_AAC_I;
	conductor_N OHCond_NONE;
	spacing OHSpacing_VERTICAL_3P_52;
}

// L_1100125768_LineConfig
object line_configuration {
	name L_1100125768_LineConfig;
	conductor_A OHCond_4_ACSR_I;
	conductor_B OHCond_4_ACSR_I;
	conductor_C OHCond_NONE;
	conductor_N OHCond_NONE;
	spacing OHSpacing_HORIZONTAL_2P_52;
}

// L_1100117300_LineConfig
object line_configuration {
	name L_1100117300_LineConfig;
	conductor_A OHCond_6_CU_I;
	conductor_B OHCond_6_CU_I;
	conductor_C OHCond_6_CU_I;
	conductor_N OHCond_NONE;
	spacing OHSpacing_HORIZONTAL_3P_52;
}

// L_1100075779_LineConfig
object line_configuration {
	name L_1100075779_LineConfig;
	conductor_A OHCond_4_ACSR_I;
	conductor_B OHCond_4_ACSR_I;
	conductor_C OHCond_4_ACSR_I;
	conductor_N OHCond_NONE;
	spacing OHSpacing_HORIZONTAL_3P_52;
}

// L_1100044969_LineConfig
object line_configuration {
	name L_1100044969_LineConfig;
	conductor_A OHCond_715_AAC_I;
	conductor_B OHCond_715_AAC_I;
	conductor_C OHCond_715_AAC_I;
	conductor_N OHCond_NONE;
	spacing OHSpacing_HORIZONTAL_3P_52;
}

// L_1100005219_LineConfig
object line_configuration {
	name L_1100005219_LineConfig;
	conductor_A OHCond_4/0_AAC_I;
	conductor_B OHCond_4/0_AAC_I;
	conductor_C OHCond_4/0_AAC_I;
	conductor_N OHCond_NONE;
	spacing OHSpacing_VERTICAL_3P_52;
}

// L_1100098548_LineConfig
object line_configuration {
	name L_1100098548_LineConfig;
	conductor_A OHCond_4_ACSR_I;
	conductor_B OHCond_4_ACSR_I;
	conductor_C OHCond_4_ACSR_I;
	conductor_N OHCond_NONE;
	spacing OHSpacing_HORIZONTAL_3P_52;
}

// L_1100162967_LineConfig
object line_configuration {
	name L_1100162967_LineConfig;
	conductor_A OHCond_1/0_ACSR_I;
	conductor_B OHCond_1/0_ACSR_I;
	conductor_C OHCond_1/0_ACSR_I;
	conductor_N OHCond_NONE;
	spacing OHSpacing_HORIZONTAL_3P_52;
}

// L_1100005753_LineConfig
object line_configuration {
	name L_1100005753_LineConfig;
	conductor_A OHCond_4_ACSR_I;
	conductor_B OHCond_4_ACSR_I;
	conductor_C OHCond_4_ACSR_I;
	conductor_N OHCond_NONE;
	spacing OHSpacing_HORIZONTAL_3P_52;
}

// L_1100111435_LineConfig
object line_configuration {
	name L_1100111435_LineConfig;
	conductor_A OHCond_715_AAC_I;
	conductor_B OHCond_715_AAC_I;
	conductor_C OHCond_715_AAC_I;
	conductor_N OHCond_NONE;
	spacing OHSpacing_HORIZONTAL_3P_52;
}

// L_1100171630_LineConfig
object line_configuration {
	name L_1100171630_LineConfig;
	conductor_A OHCond_4_ACSR_I;
	conductor_B OHCond_4_ACSR_I;
	conductor_C OHCond_4_ACSR_I;
	conductor_N OHCond_NONE;
	spacing OHSpacing_HORIZONTAL_3P_52;
}

// L_1100125584_LineConfig
object line_configuration {
	name L_1100125584_LineConfig;
	conductor_A OHCond_4_ACSR_I;
	conductor_B OHCond_4_ACSR_I;
	conductor_C OHCond_NONE;
	conductor_N OHCond_NONE;
	spacing OHSpacing_HORIZONTAL_2P_88;
}

// L_1100186009_LineConfig
object line_configuration {
	name L_1100186009_LineConfig;
	conductor_A OHCond_6_CU_I;
	conductor_B OHCond_6_CU_I;
	conductor_C OHCond_6_CU_I;
	conductor_N OHCond_NONE;
	spacing OHSpacing_HORIZONTAL_3P_52;
}

// L_1100125568_LineConfig
object line_configuration {
	name L_1100125568_LineConfig;
	conductor_A OHCond_4_ACSR_I;
	conductor_B OHCond_4_ACSR_I;
	conductor_C OHCond_4_ACSR_I;
	conductor_N OHCond_NONE;
	spacing OHSpacing_TRIANGULAR_3P_36;
}

// L_1100203284_LineConfig
object line_configuration {
	name L_1100203284_LineConfig;
	conductor_A OHCond_4_ACSR_I;
	conductor_B OHCond_4_ACSR_I;
	conductor_C OHCond_NONE;
	conductor_N OHCond_NONE;
	spacing OHSpacing_HORIZONTAL_2P_88;
}

// L_1100125629_LineConfig
object line_configuration {
	name L_1100125629_LineConfig;
	conductor_A OHCond_715_AAC_I;
	conductor_B OHCond_715_AAC_I;
	conductor_C OHCond_715_AAC_I;
	conductor_N OHCond_NONE;
	spacing OHSpacing_VERTICAL_3P_52;
}

// L_1100017298_LineConfig
object line_configuration {
	name L_1100017298_LineConfig;
	conductor_A OHCond_4_ACSR_I;
	conductor_B OHCond_4_ACSR_I;
	conductor_C OHCond_NONE;
	conductor_N OHCond_NONE;
	spacing OHSpacing_HORIZONTAL_2P_88;
}

// L_1100017294_LineConfig
object line_configuration {
	name L_1100017294_LineConfig;
	conductor_A OHCond_4_ACSR_I;
	conductor_B OHCond_4_ACSR_I;
	conductor_C OHCond_4_ACSR_I;
	conductor_N OHCond_NONE;
	spacing OHSpacing_TRIANGULAR_3P_36;
}

// L_1100124401_LineConfig
object line_configuration {
	name L_1100124401_LineConfig;
	conductor_A OHCond_4_ACSR_I;
	conductor_B OHCond_4_ACSR_I;
	conductor_C OHCond_NONE;
	conductor_N OHCond_NONE;
	spacing OHSpacing_HORIZONTAL_2P_88;
}

// L_1100124400_LineConfig
object line_configuration {
	name L_1100124400_LineConfig;
	conductor_A OHCond_4_ACSR_I;
	conductor_B OHCond_4_ACSR_I;
	conductor_C OHCond_NONE;
	conductor_N OHCond_NONE;
	spacing OHSpacing_HORIZONTAL_2P_88;
}

// L_1100124370_LineConfig
object line_configuration {
	name L_1100124370_LineConfig;
	conductor_A OHCond_4_ACSR_I;
	conductor_B OHCond_4_ACSR_I;
	conductor_C OHCond_NONE;
	conductor_N OHCond_NONE;
	spacing OHSpacing_HORIZONTAL_2P_88;
}

// L_1100173101_LineConfig
object line_configuration {
	name L_1100173101_LineConfig;
	conductor_A OHCond_4_ACSR_I;
	conductor_B OHCond_4_ACSR_I;
	conductor_C OHCond_4_ACSR_I;
	conductor_N OHCond_NONE;
	spacing OHSpacing_TRIANGULAR_3P_36;
}

// L_1100093904_LineConfig
object line_configuration {
	name L_1100093904_LineConfig;
	conductor_A OHCond_4_ACSR_I;
	conductor_B OHCond_4_ACSR_I;
	conductor_C OHCond_NONE;
	conductor_N OHCond_NONE;
	spacing OHSpacing_HORIZONTAL_2P_88;
}

// L_1100005761_LineConfig
object line_configuration {
	name L_1100005761_LineConfig;
	conductor_A OHCond_6_CU_I;
	conductor_B OHCond_6_CU_I;
	conductor_C OHCond_6_CU_I;
	conductor_N OHCond_NONE;
	spacing OHSpacing_HORIZONTAL_3P_52;
}

// L_1100125749_LineConfig
object line_configuration {
	name L_1100125749_LineConfig;
	conductor_A OHCond_715_AAC_I;
	conductor_B OHCond_715_AAC_I;
	conductor_C OHCond_715_AAC_I;
	conductor_N OHCond_NONE;
	spacing OHSpacing_HORIZONTAL_3P_52;
}

// L_1100188291_LineConfig
object line_configuration {
	name L_1100188291_LineConfig;
	conductor_A OHCond_4/0_AAC_I;
	conductor_B OHCond_4/0_AAC_I;
	conductor_C OHCond_4/0_AAC_I;
	conductor_N OHCond_NONE;
	spacing OHSpacing_VERTICAL_3P_52;
}

// L_1100017297_LineConfig
object line_configuration {
	name L_1100017297_LineConfig;
	conductor_A OHCond_4_ACSR_I;
	conductor_B OHCond_4_ACSR_I;
	conductor_C OHCond_4_ACSR_I;
	conductor_N OHCond_NONE;
	spacing OHSpacing_TRIANGULAR_3P_36;
}

// L_1100005944_LineConfig
object line_configuration {
	name L_1100005944_LineConfig;
	conductor_A OHCond_715_AAC_I;
	conductor_B OHCond_715_AAC_I;
	conductor_C OHCond_715_AAC_I;
	conductor_N OHCond_NONE;
	spacing OHSpacing_HORIZONTAL_3P_52;
}

// L_1100125612_LineConfig
object line_configuration {
	name L_1100125612_LineConfig;
	conductor_A OHCond_4_ACSR_I;
	conductor_B OHCond_4_ACSR_I;
	conductor_C OHCond_NONE;
	conductor_N OHCond_NONE;
	spacing OHSpacing_HORIZONTAL_2P_88;
}

// L_1100125653_LineConfig
object line_configuration {
	name L_1100125653_LineConfig;
	conductor_A OHCond_715_AAC_I;
	conductor_B OHCond_715_AAC_I;
	conductor_C OHCond_715_AAC_I;
	conductor_N OHCond_NONE;
	spacing OHSpacing_HORIZONTAL_3P_52;
}

// L_1100079662_LineConfig
object line_configuration {
	name L_1100079662_LineConfig;
	conductor_A OHCond_4/0_AAC_I;
	conductor_B OHCond_4/0_AAC_I;
	conductor_C OHCond_4/0_AAC_I;
	conductor_N OHCond_NONE;
	spacing OHSpacing_VERTICAL_3P_52;
}

// L_1100006473_LineConfig
object line_configuration {
	name L_1100006473_LineConfig;
	conductor_A OHCond_715_AAC_I;
	conductor_B OHCond_715_AAC_I;
	conductor_C OHCond_715_AAC_I;
	conductor_N OHCond_NONE;
	spacing OHSpacing_VERTICAL_3P_52;
}

// L_1100191544_LineConfig
object line_configuration {
	name L_1100191544_LineConfig;
	conductor_A OHCond_6_CU_I;
	conductor_B OHCond_6_CU_I;
	conductor_C OHCond_6_CU_I;
	conductor_N OHCond_NONE;
	spacing OHSpacing_HORIZONTAL_3P_52;
}

// L_1100125650_LineConfig
object line_configuration {
	name L_1100125650_LineConfig;
	conductor_A OHCond_4_ACSR_I;
	conductor_B OHCond_4_ACSR_I;
	conductor_C OHCond_NONE;
	conductor_N OHCond_NONE;
	spacing OHSpacing_HORIZONTAL_2P_88;
}

// L_1100124658_LineConfig
object line_configuration {
	name L_1100124658_LineConfig;
	conductor_A OHCond_4_ACSR_I;
	conductor_B OHCond_4_ACSR_I;
	conductor_C OHCond_NONE;
	conductor_N OHCond_NONE;
	spacing OHSpacing_HORIZONTAL_2P_88;
}

// L_1100125613_LineConfig
object line_configuration {
	name L_1100125613_LineConfig;
	conductor_A OHCond_4_ACSR_I;
	conductor_B OHCond_4_ACSR_I;
	conductor_C OHCond_NONE;
	conductor_N OHCond_NONE;
	spacing OHSpacing_HORIZONTAL_2P_88;
}

// L_1100176875_LineConfig
object line_configuration {
	name L_1100176875_LineConfig;
	conductor_A OHCond_6_CU_I;
	conductor_B OHCond_6_CU_I;
	conductor_C OHCond_6_CU_I;
	conductor_N OHCond_NONE;
	spacing OHSpacing_HORIZONTAL_3P_52;
}

// L_1100173100_LineConfig
object line_configuration {
	name L_1100173100_LineConfig;
	conductor_A OHCond_4_ACSR_I;
	conductor_B OHCond_4_ACSR_I;
	conductor_C OHCond_4_ACSR_I;
	conductor_N OHCond_NONE;
	spacing OHSpacing_TRIANGULAR_3P_36;
}

// L_1100125570_LineConfig
object line_configuration {
	name L_1100125570_LineConfig;
	conductor_A OHCond_4_ACSR_I;
	conductor_B OHCond_4_ACSR_I;
	conductor_C OHCond_NONE;
	conductor_N OHCond_NONE;
	spacing OHSpacing_HORIZONTAL_2P_88;
}

// L_1100125553_LineConfig
object line_configuration {
	name L_1100125553_LineConfig;
	conductor_A OHCond_4_ACSR_I;
	conductor_B OHCond_4_ACSR_I;
	conductor_C OHCond_NONE;
	conductor_N OHCond_NONE;
	spacing OHSpacing_HORIZONTAL_2P_88;
}

// L_1100125778_LineConfig
object line_configuration {
	name L_1100125778_LineConfig;
	conductor_A OHCond_715_AAC_I;
	conductor_B OHCond_715_AAC_I;
	conductor_C OHCond_715_AAC_I;
	conductor_N OHCond_NONE;
	spacing OHSpacing_HORIZONTAL_3P_52;
}

// L_1100044155_LineConfig
object line_configuration {
	name L_1100044155_LineConfig;
	conductor_A OHCond_715_AAC_I;
	conductor_B OHCond_715_AAC_I;
	conductor_C OHCond_715_AAC_I;
	conductor_N OHCond_NONE;
	spacing OHSpacing_HORIZONTAL_3P_52;
}

// L_1100201007_LineConfig
object line_configuration {
	name L_1100201007_LineConfig;
	conductor_A OHCond_4_ACSR_I;
	conductor_B OHCond_4_ACSR_I;
	conductor_C OHCond_NONE;
	conductor_N OHCond_NONE;
	spacing OHSpacing_HORIZONTAL_2P_88;
}

// L_1100125719_LineConfig
object line_configuration {
	name L_1100125719_LineConfig;
	conductor_A OHCond_715_AAC_I;
	conductor_B OHCond_715_AAC_I;
	conductor_C OHCond_715_AAC_I;
	conductor_N OHCond_NONE;
	spacing OHSpacing_HORIZONTAL_3P_52;
}

// L_1100005949_LineConfig
object line_configuration {
	name L_1100005949_LineConfig;
	conductor_A OHCond_715_AAC_I;
	conductor_B OHCond_715_AAC_I;
	conductor_C OHCond_715_AAC_I;
	conductor_N OHCond_NONE;
	spacing OHSpacing_HORIZONTAL_3P_52;
}

// L_1100017287_LineConfig
object line_configuration {
	name L_1100017287_LineConfig;
	conductor_A OHCond_4_ACSR_I;
	conductor_B OHCond_4_ACSR_I;
	conductor_C OHCond_NONE;
	conductor_N OHCond_NONE;
	spacing OHSpacing_HORIZONTAL_2P_88;
}

// L_1100124351_LineConfig
object line_configuration {
	name L_1100124351_LineConfig;
	conductor_A OHCond_4_ACSR_I;
	conductor_B OHCond_4_ACSR_I;
	conductor_C OHCond_NONE;
	conductor_N OHCond_NONE;
	spacing OHSpacing_HORIZONTAL_2P_88;
}

// L_1100125700_LineConfig
object line_configuration {
	name L_1100125700_LineConfig;
	conductor_A OHCond_4_ACSR_I;
	conductor_B OHCond_4_ACSR_I;
	conductor_C OHCond_4_ACSR_I;
	conductor_N OHCond_NONE;
	spacing OHSpacing_HORIZONTAL_3P_52;
}

// L_1100006509_LineConfig
object line_configuration {
	name L_1100006509_LineConfig;
	conductor_A OHCond_715_AAC_I;
	conductor_B OHCond_715_AAC_I;
	conductor_C OHCond_715_AAC_I;
	conductor_N OHCond_NONE;
	spacing OHSpacing_HORIZONTAL_3P_52;
}

// L_1100084986_LineConfig
object line_configuration {
	name L_1100084986_LineConfig;
	conductor_A OHCond_4_ACSR_I;
	conductor_B OHCond_4_ACSR_I;
	conductor_C OHCond_NONE;
	conductor_N OHCond_NONE;
	spacing OHSpacing_HORIZONTAL_2P_52;
}

// L_1100185580_LineConfig
object line_configuration {
	name L_1100185580_LineConfig;
	conductor_A OHCond_4_ACSR_I;
	conductor_B OHCond_4_ACSR_I;
	conductor_C OHCond_NONE;
	conductor_N OHCond_NONE;
	spacing OHSpacing_HORIZONTAL_2P_88;
}

// L_1100005012_LineConfig
object line_configuration {
	name L_1100005012_LineConfig;
	conductor_A OHCond_6_CU_I;
	conductor_B OHCond_6_CU_I;
	conductor_C OHCond_6_CU_I;
	conductor_N OHCond_NONE;
	spacing OHSpacing_HORIZONTAL_3P_52;
}

// L_1100188989_LineConfig
object line_configuration {
	name L_1100188989_LineConfig;
	conductor_A OHCond_4_ACSR_I;
	conductor_B OHCond_4_ACSR_I;
	conductor_C OHCond_4_ACSR_I;
	conductor_N OHCond_NONE;
	spacing OHSpacing_VERTICAL_3P_52;
}

// L_1100093905_LineConfig
object line_configuration {
	name L_1100093905_LineConfig;
	conductor_A OHCond_4_ACSR_I;
	conductor_B OHCond_4_ACSR_I;
	conductor_C OHCond_NONE;
	conductor_N OHCond_NONE;
	spacing OHSpacing_HORIZONTAL_2P_52;
}

// L_1100125556_LineConfig
object line_configuration {
	name L_1100125556_LineConfig;
	conductor_A OHCond_4_ACSR_I;
	conductor_B OHCond_4_ACSR_I;
	conductor_C OHCond_NONE;
	conductor_N OHCond_NONE;
	spacing OHSpacing_HORIZONTAL_2P_88;
}

// L_1100125839_LineConfig
object line_configuration {
	name L_1100125839_LineConfig;
	conductor_A OHCond_715_AAC_I;
	conductor_B OHCond_715_AAC_I;
	conductor_C OHCond_715_AAC_I;
	conductor_N OHCond_NONE;
	spacing OHSpacing_HORIZONTAL_3P_52;
}

// L_1100124361_LineConfig
object line_configuration {
	name L_1100124361_LineConfig;
	conductor_A OHCond_4_ACSR_I;
	conductor_B OHCond_4_ACSR_I;
	conductor_C OHCond_4_ACSR_I;
	conductor_N OHCond_NONE;
	spacing OHSpacing_HORIZONTAL_3P_52;
}

// L_1100021741_LineConfig
object line_configuration {
	name L_1100021741_LineConfig;
	conductor_A OHCond_715_AAC_I;
	conductor_B OHCond_715_AAC_I;
	conductor_C OHCond_715_AAC_I;
	conductor_N OHCond_NONE;
	spacing OHSpacing_HORIZONTAL_3P_52;
}

// L_1100078961_LineConfig
object line_configuration {
	name L_1100078961_LineConfig;
	conductor_A OHCond_4_CU_I;
	conductor_B OHCond_4_CU_I;
	conductor_C OHCond_4_CU_I;
	conductor_N OHCond_NONE;
	spacing OHSpacing_HORIZONTAL_3P_52;
}

// L_1100124403_LineConfig
object line_configuration {
	name L_1100124403_LineConfig;
	conductor_A OHCond_4_ACSR_I;
	conductor_B OHCond_4_ACSR_I;
	conductor_C OHCond_NONE;
	conductor_N OHCond_NONE;
	spacing OHSpacing_HORIZONTAL_2P_88;
}

// L_1100005959_LineConfig
object line_configuration {
	name L_1100005959_LineConfig;
	conductor_A OHCond_715_AAC_I;
	conductor_B OHCond_715_AAC_I;
	conductor_C OHCond_715_AAC_I;
	conductor_N OHCond_NONE;
	spacing OHSpacing_HORIZONTAL_3P_52;
}

// L_1100124378_LineConfig
object line_configuration {
	name L_1100124378_LineConfig;
	conductor_A OHCond_4_ACSR_I;
	conductor_B OHCond_4_ACSR_I;
	conductor_C OHCond_NONE;
	conductor_N OHCond_NONE;
	spacing OHSpacing_HORIZONTAL_2P_88;
}

// L_1100125554_LineConfig
object line_configuration {
	name L_1100125554_LineConfig;
	conductor_A OHCond_4_ACSR_I;
	conductor_B OHCond_4_ACSR_I;
	conductor_C OHCond_NONE;
	conductor_N OHCond_NONE;
	spacing OHSpacing_HORIZONTAL_2P_88;
}

// L_1100006568_LineConfig
object line_configuration {
	name L_1100006568_LineConfig;
	conductor_A OHCond_4/0_AAC_I;
	conductor_B OHCond_4/0_AAC_I;
	conductor_C OHCond_4/0_AAC_I;
	conductor_N OHCond_NONE;
	spacing OHSpacing_HORIZONTAL_3P_52;
}

// L_1100046949_LineConfig
object line_configuration {
	name L_1100046949_LineConfig;
	conductor_A OHCond_715_AAC_I;
	conductor_B OHCond_715_AAC_I;
	conductor_C OHCond_715_AAC_I;
	conductor_N OHCond_NONE;
	spacing OHSpacing_HORIZONTAL_3P_52;
}

// L_1100125579_LineConfig
object line_configuration {
	name L_1100125579_LineConfig;
	conductor_A OHCond_4_ACSR_I;
	conductor_B OHCond_4_ACSR_I;
	conductor_C OHCond_NONE;
	conductor_N OHCond_NONE;
	spacing OHSpacing_HORIZONTAL_2P_88;
}

// L_1100160001_LineConfig
object line_configuration {
	name L_1100160001_LineConfig;
	conductor_A OHCond_4/0_AAC_I;
	conductor_B OHCond_4/0_AAC_I;
	conductor_C OHCond_4/0_AAC_I;
	conductor_N OHCond_NONE;
	spacing OHSpacing_HORIZONTAL_3P_52;
}

// L_1100125771_LineConfig
object line_configuration {
	name L_1100125771_LineConfig;
	conductor_A OHCond_6_CU_I;
	conductor_B OHCond_6_CU_I;
	conductor_C OHCond_6_CU_I;
	conductor_N OHCond_NONE;
	spacing OHSpacing_HORIZONTAL_3P_52;
}

// L_1100005776_LineConfig
object line_configuration {
	name L_1100005776_LineConfig;
	conductor_A OHCond_6_CU_I;
	conductor_B OHCond_6_CU_I;
	conductor_C OHCond_6_CU_I;
	conductor_N OHCond_NONE;
	spacing OHSpacing_HORIZONTAL_3P_52;
}

// L_1100125616_LineConfig
object line_configuration {
	name L_1100125616_LineConfig;
	conductor_A OHCond_4_ACSR_I;
	conductor_B OHCond_4_ACSR_I;
	conductor_C OHCond_NONE;
	conductor_N OHCond_NONE;
	spacing OHSpacing_HORIZONTAL_2P_88;
}

// L_1100005752_LineConfig
object line_configuration {
	name L_1100005752_LineConfig;
	conductor_A OHCond_4_ACSR_I;
	conductor_B OHCond_4_ACSR_I;
	conductor_C OHCond_4_ACSR_I;
	conductor_N OHCond_NONE;
	spacing OHSpacing_HORIZONTAL_3P_52;
}

// L_1100017295_LineConfig
object line_configuration {
	name L_1100017295_LineConfig;
	conductor_A OHCond_4_ACSR_I;
	conductor_B OHCond_4_ACSR_I;
	conductor_C OHCond_4_ACSR_I;
	conductor_N OHCond_NONE;
	spacing OHSpacing_TRIANGULAR_3P_36;
}

// L_1100125717_LineConfig
object line_configuration {
	name L_1100125717_LineConfig;
	conductor_A OHCond_4_ACSR_I;
	conductor_B OHCond_4_ACSR_I;
	conductor_C OHCond_4_ACSR_I;
	conductor_N OHCond_NONE;
	spacing OHSpacing_HORIZONTAL_3P_52;
}

// L_1100125754_LineConfig
object line_configuration {
	name L_1100125754_LineConfig;
	conductor_A OHCond_4_ACSR_I;
	conductor_B OHCond_4_ACSR_I;
	conductor_C OHCond_4_ACSR_I;
	conductor_N OHCond_NONE;
	spacing OHSpacing_HORIZONTAL_3P_52;
}

// L_1100098547_LineConfig
object line_configuration {
	name L_1100098547_LineConfig;
	conductor_A OHCond_4_CU_I;
	conductor_B OHCond_4_CU_I;
	conductor_C OHCond_4_CU_I;
	conductor_N OHCond_NONE;
	spacing OHSpacing_HORIZONTAL_3P_52;
}

// L_1100005010_LineConfig
object line_configuration {
	name L_1100005010_LineConfig;
	conductor_A OHCond_6_CU_I;
	conductor_B OHCond_6_CU_I;
	conductor_C OHCond_6_CU_I;
	conductor_N OHCond_NONE;
	spacing OHSpacing_HORIZONTAL_3P_52;
}

// L_1100006474_LineConfig
object line_configuration {
	name L_1100006474_LineConfig;
	conductor_A OHCond_715_AAC_I;
	conductor_B OHCond_715_AAC_I;
	conductor_C OHCond_715_AAC_I;
	conductor_N OHCond_NONE;
	spacing OHSpacing_VERTICAL_3P_52;
}

// L_1100046951_LineConfig
object line_configuration {
	name L_1100046951_LineConfig;
	conductor_A OHCond_4_ACSR_I;
	conductor_B OHCond_4_ACSR_I;
	conductor_C OHCond_4_ACSR_I;
	conductor_N OHCond_NONE;
	spacing OHSpacing_HORIZONTAL_3P_52;
}

// L_1100125699_LineConfig
object line_configuration {
	name L_1100125699_LineConfig;
	conductor_A OHCond_4_ACSR_I;
	conductor_B OHCond_4_ACSR_I;
	conductor_C OHCond_4_ACSR_I;
	conductor_N OHCond_NONE;
	spacing OHSpacing_HORIZONTAL_3P_52;
}

// L_1100005759_LineConfig
object line_configuration {
	name L_1100005759_LineConfig;
	conductor_A OHCond_4/0_AAC_I;
	conductor_B OHCond_4/0_AAC_I;
	conductor_C OHCond_4/0_AAC_I;
	conductor_N OHCond_NONE;
	spacing OHSpacing_VERTICAL_3P_52;
}

// L_1100125588_LineConfig
object line_configuration {
	name L_1100125588_LineConfig;
	conductor_A OHCond_4_ACSR_I;
	conductor_B OHCond_4_ACSR_I;
	conductor_C OHCond_NONE;
	conductor_N OHCond_NONE;
	spacing OHSpacing_HORIZONTAL_2P_88;
}

// L_1100159084_LineConfig
object line_configuration {
	name L_1100159084_LineConfig;
	conductor_A OHCond_4_ACSR_I;
	conductor_B OHCond_4_ACSR_I;
	conductor_C OHCond_NONE;
	conductor_N OHCond_NONE;
	spacing OHSpacing_HORIZONTAL_2P_88;
}

// L_1100042646_LineConfig
object line_configuration {
	name L_1100042646_LineConfig;
	conductor_A OHCond_4_ACSR_I;
	conductor_B OHCond_4_ACSR_I;
	conductor_C OHCond_4_ACSR_I;
	conductor_N OHCond_NONE;
	spacing OHSpacing_HORIZONTAL_3P_52;
}

// L_1100005956_LineConfig
object line_configuration {
	name L_1100005956_LineConfig;
	conductor_A OHCond_6_CU_I;
	conductor_B OHCond_6_CU_I;
	conductor_C OHCond_6_CU_I;
	conductor_N OHCond_NONE;
	spacing OHSpacing_HORIZONTAL_3P_52;
}

// L_1100165319_LineConfig
object line_configuration {
	name L_1100165319_LineConfig;
	conductor_A OHCond_1/0_ACSR_I;
	conductor_B OHCond_1/0_ACSR_I;
	conductor_C OHCond_1/0_ACSR_I;
	conductor_N OHCond_NONE;
	spacing OHSpacing_TRIANGULAR_3P_36;
}

// L_1100125611_LineConfig
object line_configuration {
	name L_1100125611_LineConfig;
	conductor_A OHCond_4_ACSR_I;
	conductor_B OHCond_4_ACSR_I;
	conductor_C OHCond_NONE;
	conductor_N OHCond_NONE;
	spacing OHSpacing_HORIZONTAL_2P_88;
}

// L_1100005213_LineConfig
object line_configuration {
	name L_1100005213_LineConfig;
	conductor_A OHCond_397_AAC_I;
	conductor_B OHCond_397_AAC_I;
	conductor_C OHCond_397_AAC_I;
	conductor_N OHCond_NONE;
	spacing OHSpacing_VERTICAL_3P_52;
}

// L_1100005215_LineConfig
object line_configuration {
	name L_1100005215_LineConfig;
	conductor_A OHCond_1/0_ACSR_I;
	conductor_B OHCond_1/0_ACSR_I;
	conductor_C OHCond_1/0_ACSR_I;
	conductor_N OHCond_NONE;
	spacing OHSpacing_TRIANGULAR_3P_36;
}

// L_1100078959_LineConfig
object line_configuration {
	name L_1100078959_LineConfig;
	conductor_A OHCond_4_CU_I;
	conductor_B OHCond_4_CU_I;
	conductor_C OHCond_4_CU_I;
	conductor_N OHCond_NONE;
	spacing OHSpacing_HORIZONTAL_3P_52;
}

// L_1100005762_LineConfig
object line_configuration {
	name L_1100005762_LineConfig;
	conductor_A OHCond_4/0_AAC_I;
	conductor_B OHCond_4/0_AAC_I;
	conductor_C OHCond_4/0_AAC_I;
	conductor_N OHCond_NONE;
	spacing OHSpacing_HORIZONTAL_3P_52;
}

// L_1100125762_LineConfig
object line_configuration {
	name L_1100125762_LineConfig;
	conductor_A OHCond_6_CU_I;
	conductor_B OHCond_6_CU_I;
	conductor_C OHCond_6_CU_I;
	conductor_N OHCond_NONE;
	spacing OHSpacing_HORIZONTAL_3P_52;
}

// L_1100124406_LineConfig
object line_configuration {
	name L_1100124406_LineConfig;
	conductor_A OHCond_4_ACSR_I;
	conductor_B OHCond_4_ACSR_I;
	conductor_C OHCond_NONE;
	conductor_N OHCond_NONE;
	spacing OHSpacing_HORIZONTAL_2P_88;
}

// L_1100124405_LineConfig
object line_configuration {
	name L_1100124405_LineConfig;
	conductor_A OHCond_4_ACSR_I;
	conductor_B OHCond_4_ACSR_I;
	conductor_C OHCond_NONE;
	conductor_N OHCond_NONE;
	spacing OHSpacing_HORIZONTAL_2P_88;
}

// L_1100005951_LineConfig
object line_configuration {
	name L_1100005951_LineConfig;
	conductor_A OHCond_6_CU_I;
	conductor_B OHCond_6_CU_I;
	conductor_C OHCond_6_CU_I;
	conductor_N OHCond_NONE;
	spacing OHSpacing_HORIZONTAL_3P_52;
}

// L_1100005216_LineConfig
object line_configuration {
	name L_1100005216_LineConfig;
	conductor_A OHCond_397_AAC_I;
	conductor_B OHCond_397_AAC_I;
	conductor_C OHCond_397_AAC_I;
	conductor_N OHCond_NONE;
	spacing OHSpacing_VERTICAL_3P_52;
}

// L_1100005952_LineConfig
object line_configuration {
	name L_1100005952_LineConfig;
	conductor_A OHCond_6_CU_I;
	conductor_B OHCond_6_CU_I;
	conductor_C OHCond_6_CU_I;
	conductor_N OHCond_NONE;
	spacing OHSpacing_HORIZONTAL_3P_52;
}

// L_1100078960_LineConfig
object line_configuration {
	name L_1100078960_LineConfig;
	conductor_A OHCond_4_CU_I;
	conductor_B OHCond_4_CU_I;
	conductor_C OHCond_4_CU_I;
	conductor_N OHCond_NONE;
	spacing OHSpacing_HORIZONTAL_3P_52;
}

// L_1100042689_LineConfig
object line_configuration {
	name L_1100042689_LineConfig;
	conductor_A OHCond_4_CU_I;
	conductor_B OHCond_4_CU_I;
	conductor_C OHCond_4_CU_I;
	conductor_N OHCond_NONE;
	spacing OHSpacing_HORIZONTAL_3P_52;
}

// L_1100017212_LineConfig
object line_configuration {
	name L_1100017212_LineConfig;
	conductor_A OHCond_4_CU_I;
	conductor_B OHCond_4_CU_I;
	conductor_C OHCond_4_CU_I;
	conductor_N OHCond_NONE;
	spacing OHSpacing_HORIZONTAL_3P_52;
}

// L_1100125639_LineConfig
object line_configuration {
	name L_1100125639_LineConfig;
	conductor_A OHCond_4_ACSR_I;
	conductor_B OHCond_4_ACSR_I;
	conductor_C OHCond_NONE;
	conductor_N OHCond_NONE;
	spacing OHSpacing_VERTICAL_2P_52;
}

// L_1100125726_LineConfig
object line_configuration {
	name L_1100125726_LineConfig;
	conductor_A OHCond_715_AAC_I;
	conductor_B OHCond_715_AAC_I;
	conductor_C OHCond_715_AAC_I;
	conductor_N OHCond_NONE;
	spacing OHSpacing_HORIZONTAL_3P_52;
}

// L_1100017286_LineConfig
object line_configuration {
	name L_1100017286_LineConfig;
	conductor_A OHCond_4_ACSR_I;
	conductor_B OHCond_4_ACSR_I;
	conductor_C OHCond_NONE;
	conductor_N OHCond_NONE;
	spacing OHSpacing_HORIZONTAL_2P_88;
}

// L_1100125555_LineConfig
object line_configuration {
	name L_1100125555_LineConfig;
	conductor_A OHCond_4_ACSR_I;
	conductor_B OHCond_4_ACSR_I;
	conductor_C OHCond_NONE;
	conductor_N OHCond_NONE;
	spacing OHSpacing_HORIZONTAL_2P_88;
}

// L_1100005777_LineConfig
object line_configuration {
	name L_1100005777_LineConfig;
	conductor_A OHCond_6_CU_I;
	conductor_B OHCond_6_CU_I;
	conductor_C OHCond_6_CU_I;
	conductor_N OHCond_NONE;
	spacing OHSpacing_HORIZONTAL_3P_52;
}

// L_1100124373_LineConfig
object line_configuration {
	name L_1100124373_LineConfig;
	conductor_A OHCond_4_ACSR_I;
	conductor_B OHCond_4_ACSR_I;
	conductor_C OHCond_NONE;
	conductor_N OHCond_NONE;
	spacing OHSpacing_HORIZONTAL_2P_88;
}

// L_1100021742_LineConfig
object line_configuration {
	name L_1100021742_LineConfig;
	conductor_A OHCond_715_AAC_I;
	conductor_B OHCond_715_AAC_I;
	conductor_C OHCond_715_AAC_I;
	conductor_N OHCond_NONE;
	spacing OHSpacing_HORIZONTAL_3P_52;
}

// L_1100125784_LineConfig
object line_configuration {
	name L_1100125784_LineConfig;
	conductor_A OHCond_715_AAC_I;
	conductor_B OHCond_715_AAC_I;
	conductor_C OHCond_715_AAC_I;
	conductor_N OHCond_NONE;
	spacing OHSpacing_HORIZONTAL_3P_52;
}

// L_1100117302_LineConfig
object line_configuration {
	name L_1100117302_LineConfig;
	conductor_A OHCond_6_CU_I;
	conductor_B OHCond_6_CU_I;
	conductor_C OHCond_6_CU_I;
	conductor_N OHCond_NONE;
	spacing OHSpacing_HORIZONTAL_3P_52;
}

// L_1100176956_LineConfig
object line_configuration {
	name L_1100176956_LineConfig;
	conductor_A OHCond_4_ACSR_I;
	conductor_B OHCond_4_ACSR_I;
	conductor_C OHCond_NONE;
	conductor_N OHCond_NONE;
	spacing OHSpacing_HORIZONTAL_2P_88;
}

// L_1100125697_LineConfig
object line_configuration {
	name L_1100125697_LineConfig;
	conductor_A OHCond_4_ACSR_I;
	conductor_B OHCond_4_ACSR_I;
	conductor_C OHCond_4_ACSR_I;
	conductor_N OHCond_NONE;
	spacing OHSpacing_HORIZONTAL_3P_52;
}

// L_1100165003_LineConfig
object line_configuration {
	name L_1100165003_LineConfig;
	conductor_A OHCond_715_AAC_I;
	conductor_B OHCond_715_AAC_I;
	conductor_C OHCond_715_AAC_I;
	conductor_N OHCond_NONE;
	spacing OHSpacing_HORIZONTAL_3P_52;
}

// L_1100125718_LineConfig
object line_configuration {
	name L_1100125718_LineConfig;
	conductor_A OHCond_4_ACSR_I;
	conductor_B OHCond_4_ACSR_I;
	conductor_C OHCond_4_ACSR_I;
	conductor_N OHCond_NONE;
	spacing OHSpacing_HORIZONTAL_3P_52;
}

// L_1100005963_LineConfig
object line_configuration {
	name L_1100005963_LineConfig;
	conductor_A OHCond_715_AAC_I;
	conductor_B OHCond_715_AAC_I;
	conductor_C OHCond_715_AAC_I;
	conductor_N OHCond_NONE;
	spacing OHSpacing_HORIZONTAL_3P_52;
}

// L_1100125644_LineConfig
object line_configuration {
	name L_1100125644_LineConfig;
	conductor_A OHCond_4_CU_I;
	conductor_B OHCond_4_CU_I;
	conductor_C OHCond_4_CU_I;
	conductor_N OHCond_NONE;
	spacing OHSpacing_HORIZONTAL_3P_52;
}

// L_1100125772_LineConfig
object line_configuration {
	name L_1100125772_LineConfig;
	conductor_A OHCond_4/0_AAC_I;
	conductor_B OHCond_4/0_AAC_I;
	conductor_C OHCond_4/0_AAC_I;
	conductor_N OHCond_NONE;
	spacing OHSpacing_VERTICAL_3P_52;
}

// L_1100125856_LineConfig
object line_configuration {
	name L_1100125856_LineConfig;
	conductor_A OHCond_6_CU_I;
	conductor_B OHCond_6_CU_I;
	conductor_C OHCond_6_CU_I;
	conductor_N OHCond_NONE;
	spacing OHSpacing_HORIZONTAL_3P_52;
}

// L_1100006560_LineConfig
object line_configuration {
	name L_1100006560_LineConfig;
	conductor_A OHCond_715_AAC_I;
	conductor_B OHCond_715_AAC_I;
	conductor_C OHCond_715_AAC_I;
	conductor_N OHCond_NONE;
	spacing OHSpacing_HORIZONTAL_3P_52;
}

// L_1100125769_LineConfig
object line_configuration {
	name L_1100125769_LineConfig;
	conductor_A OHCond_4_ACSR_I;
	conductor_B OHCond_4_ACSR_I;
	conductor_C OHCond_NONE;
	conductor_N OHCond_NONE;
	spacing OHSpacing_HORIZONTAL_2P_52;
}

// L_1100125759_LineConfig
object line_configuration {
	name L_1100125759_LineConfig;
	conductor_A OHCond_6_CU_I;
	conductor_B OHCond_6_CU_I;
	conductor_C OHCond_NONE;
	conductor_N OHCond_NONE;
	spacing OHSpacing_HORIZONTAL_2P_88;
}

// L_1100006569_LineConfig
object line_configuration {
	name L_1100006569_LineConfig;
	conductor_A OHCond_4_CU_I;
	conductor_B OHCond_4_CU_I;
	conductor_C OHCond_4_CU_I;
	conductor_N OHCond_NONE;
	spacing OHSpacing_HORIZONTAL_3P_52;
}

// L_1100006469_LineConfig
object line_configuration {
	name L_1100006469_LineConfig;
	conductor_A OHCond_4_ACSR_I;
	conductor_B OHCond_4_ACSR_I;
	conductor_C OHCond_NONE;
	conductor_N OHCond_NONE;
	spacing OHSpacing_HORIZONTAL_2P_88;
}

// L_1100005220_LineConfig
object line_configuration {
	name L_1100005220_LineConfig;
	conductor_A OHCond_1/0_ACSR_I;
	conductor_B OHCond_1/0_ACSR_I;
	conductor_C OHCond_1/0_ACSR_I;
	conductor_N OHCond_NONE;
	spacing OHSpacing_TRIANGULAR_3P_36;
}

// L_1100046341_LineConfig
object line_configuration {
	name L_1100046341_LineConfig;
	conductor_A OHCond_6_CU_I;
	conductor_B OHCond_6_CU_I;
	conductor_C OHCond_6_CU_I;
	conductor_N OHCond_NONE;
	spacing OHSpacing_HORIZONTAL_3P_52;
}

// L_1100042682_LineConfig
object line_configuration {
	name L_1100042682_LineConfig;
	conductor_A OHCond_715_AAC_I;
	conductor_B OHCond_715_AAC_I;
	conductor_C OHCond_715_AAC_I;
	conductor_N OHCond_NONE;
	spacing OHSpacing_HORIZONTAL_3P_52;
}

// L_1100005757_LineConfig
object line_configuration {
	name L_1100005757_LineConfig;
	conductor_A OHCond_4/0_AAC_I;
	conductor_B OHCond_4/0_AAC_I;
	conductor_C OHCond_4/0_AAC_I;
	conductor_N OHCond_NONE;
	spacing OHSpacing_VERTICAL_3P_52;
}

// L_1100005954_LineConfig
object line_configuration {
	name L_1100005954_LineConfig;
	conductor_A OHCond_6_CU_I;
	conductor_B OHCond_6_CU_I;
	conductor_C OHCond_6_CU_I;
	conductor_N OHCond_NONE;
	spacing OHSpacing_HORIZONTAL_3P_52;
}

// L_1100006559_LineConfig
object line_configuration {
	name L_1100006559_LineConfig;
	conductor_A OHCond_6_CU_I;
	conductor_B OHCond_6_CU_I;
	conductor_C OHCond_6_CU_I;
	conductor_N OHCond_NONE;
	spacing OHSpacing_HORIZONTAL_3P_52;
}

// L_1100125782_LineConfig
object line_configuration {
	name L_1100125782_LineConfig;
	conductor_A OHCond_715_AAC_I;
	conductor_B OHCond_715_AAC_I;
	conductor_C OHCond_715_AAC_I;
	conductor_N OHCond_NONE;
	spacing OHSpacing_HORIZONTAL_3P_52;
}

// L_1100006564_LineConfig
object line_configuration {
	name L_1100006564_LineConfig;
	conductor_A OHCond_715_AAC_I;
	conductor_B OHCond_715_AAC_I;
	conductor_C OHCond_715_AAC_I;
	conductor_N OHCond_NONE;
	spacing OHSpacing_HORIZONTAL_3P_52;
}

// L_1100005958_LineConfig
object line_configuration {
	name L_1100005958_LineConfig;
	conductor_A OHCond_715_AAC_I;
	conductor_B OHCond_715_AAC_I;
	conductor_C OHCond_715_AAC_I;
	conductor_N OHCond_NONE;
	spacing OHSpacing_HORIZONTAL_3P_52;
}

// L_1100017300_LineConfig
object line_configuration {
	name L_1100017300_LineConfig;
	conductor_A OHCond_4_ACSR_I;
	conductor_B OHCond_4_ACSR_I;
	conductor_C OHCond_NONE;
	conductor_N OHCond_NONE;
	spacing OHSpacing_HORIZONTAL_2P_88;
}

// L_1100006567_LineConfig
object line_configuration {
	name L_1100006567_LineConfig;
	conductor_A OHCond_715_AAC_I;
	conductor_B OHCond_715_AAC_I;
	conductor_C OHCond_715_AAC_I;
	conductor_N OHCond_NONE;
	spacing OHSpacing_HORIZONTAL_3P_52;
}

// L_1100124393_LineConfig
object line_configuration {
	name L_1100124393_LineConfig;
	conductor_A OHCond_4_ACSR_I;
	conductor_B OHCond_4_ACSR_I;
	conductor_C OHCond_NONE;
	conductor_N OHCond_NONE;
	spacing OHSpacing_HORIZONTAL_2P_88;
}

// L_1100124364_LineConfig
object line_configuration {
	name L_1100124364_LineConfig;
	conductor_A OHCond_4_ACSR_I;
	conductor_B OHCond_4_ACSR_I;
	conductor_C OHCond_NONE;
	conductor_N OHCond_NONE;
	spacing OHSpacing_HORIZONTAL_2P_88;
}

// L_1100165002_LineConfig
object line_configuration {
	name L_1100165002_LineConfig;
	conductor_A OHCond_715_AAC_I;
	conductor_B OHCond_715_AAC_I;
	conductor_C OHCond_715_AAC_I;
	conductor_N OHCond_NONE;
	spacing OHSpacing_HORIZONTAL_3P_52;
}

// L_1100124404_LineConfig
object line_configuration {
	name L_1100124404_LineConfig;
	conductor_A OHCond_4_ACSR_I;
	conductor_B OHCond_4_ACSR_I;
	conductor_C OHCond_NONE;
	conductor_N OHCond_NONE;
	spacing OHSpacing_HORIZONTAL_2P_88;
}

// L_1100162966_LineConfig
object line_configuration {
	name L_1100162966_LineConfig;
	conductor_A OHCond_1/0_ACSR_I;
	conductor_B OHCond_1/0_ACSR_I;
	conductor_C OHCond_1/0_ACSR_I;
	conductor_N OHCond_NONE;
	spacing OHSpacing_HORIZONTAL_3P_52;
}

// L_1100125711_LineConfig
object line_configuration {
	name L_1100125711_LineConfig;
	conductor_A OHCond_4_ACSR_I;
	conductor_B OHCond_4_ACSR_I;
	conductor_C OHCond_4_ACSR_I;
	conductor_N OHCond_NONE;
	spacing OHSpacing_HORIZONTAL_3P_52;
}

// L_1100042678_LineConfig
object line_configuration {
	name L_1100042678_LineConfig;
	conductor_A OHCond_715_AAC_I;
	conductor_B OHCond_715_AAC_I;
	conductor_C OHCond_715_AAC_I;
	conductor_N OHCond_NONE;
	spacing OHSpacing_HORIZONTAL_3P_52;
}

// L_1100124666_LineConfig
object line_configuration {
	name L_1100124666_LineConfig;
	conductor_A OHCond_4_ACSR_I;
	conductor_B OHCond_4_ACSR_I;
	conductor_C OHCond_NONE;
	conductor_N OHCond_NONE;
	spacing OHSpacing_HORIZONTAL_2P_88;
}

// L_1100042688_LineConfig
object line_configuration {
	name L_1100042688_LineConfig;
	conductor_A OHCond_4_CU_I;
	conductor_B OHCond_4_CU_I;
	conductor_C OHCond_4_CU_I;
	conductor_N OHCond_NONE;
	spacing OHSpacing_HORIZONTAL_3P_52;
}

// L_1100093206_LineConfig
object line_configuration {
	name L_1100093206_LineConfig;
	conductor_A OHCond_6_CU_I;
	conductor_B OHCond_6_CU_I;
	conductor_C OHCond_6_CU_I;
	conductor_N OHCond_NONE;
	spacing OHSpacing_HORIZONTAL_3P_52;
}

// L_1100005760_LineConfig
object line_configuration {
	name L_1100005760_LineConfig;
	conductor_A OHCond_4/0_AAC_I;
	conductor_B OHCond_4/0_AAC_I;
	conductor_C OHCond_4/0_AAC_I;
	conductor_N OHCond_NONE;
	spacing OHSpacing_VERTICAL_3P_52;
}

// L_1100047738_LineConfig
object line_configuration {
	name L_1100047738_LineConfig;
	conductor_A OHCond_715_AAC_I;
	conductor_B OHCond_715_AAC_I;
	conductor_C OHCond_715_AAC_I;
	conductor_N OHCond_NONE;
	spacing OHSpacing_HORIZONTAL_3P_52;
}

// L_1100063141_LineConfig
object line_configuration {
	name L_1100063141_LineConfig;
	conductor_A OHCond_715_AAC_I;
	conductor_B OHCond_715_AAC_I;
	conductor_C OHCond_715_AAC_I;
	conductor_N OHCond_NONE;
	spacing OHSpacing_TRIANGULAR_3P_30;
}

// L_1100084989_LineConfig
object line_configuration {
	name L_1100084989_LineConfig;
	conductor_A OHCond_4_ACSR_I;
	conductor_B OHCond_4_ACSR_I;
	conductor_C OHCond_NONE;
	conductor_N OHCond_NONE;
	spacing OHSpacing_HORIZONTAL_2P_52;
}

// L_1100125630_LineConfig
object line_configuration {
	name L_1100125630_LineConfig;
	conductor_A OHCond_715_AAC_I;
	conductor_B OHCond_715_AAC_I;
	conductor_C OHCond_715_AAC_I;
	conductor_N OHCond_NONE;
	spacing OHSpacing_VERTICAL_3P_52;
}

// L_1100125707_LineConfig
object line_configuration {
	name L_1100125707_LineConfig;
	conductor_A OHCond_715_AAC_I;
	conductor_B OHCond_715_AAC_I;
	conductor_C OHCond_715_AAC_I;
	conductor_N OHCond_NONE;
	spacing OHSpacing_HORIZONTAL_3P_52;
}

// L_1100125720_LineConfig
object line_configuration {
	name L_1100125720_LineConfig;
	conductor_A OHCond_4_ACSR_I;
	conductor_B OHCond_4_ACSR_I;
	conductor_C OHCond_NONE;
	conductor_N OHCond_NONE;
	spacing OHSpacing_HORIZONTAL_2P_88;
}

// L_1100084987_LineConfig
object line_configuration {
	name L_1100084987_LineConfig;
	conductor_A OHCond_6_CU_I;
	conductor_B OHCond_6_CU_I;
	conductor_C OHCond_6_CU_I;
	conductor_N OHCond_NONE;
	spacing OHSpacing_HORIZONTAL_3P_52;
}

// L_1100188988_LineConfig
object line_configuration {
	name L_1100188988_LineConfig;
	conductor_A OHCond_4_ACSR_I;
	conductor_B OHCond_4_ACSR_I;
	conductor_C OHCond_NONE;
	conductor_N OHCond_NONE;
	spacing OHSpacing_VERTICAL_2P_52;
}

// L_1100017282_LineConfig
object line_configuration {
	name L_1100017282_LineConfig;
	conductor_A OHCond_4_ACSR_I;
	conductor_B OHCond_4_ACSR_I;
	conductor_C OHCond_NONE;
	conductor_N OHCond_NONE;
	spacing OHSpacing_HORIZONTAL_2P_88;
}

// L_1100017290_LineConfig
object line_configuration {
	name L_1100017290_LineConfig;
	conductor_A OHCond_4_ACSR_I;
	conductor_B OHCond_4_ACSR_I;
	conductor_C OHCond_NONE;
	conductor_N OHCond_NONE;
	spacing OHSpacing_HORIZONTAL_2P_88;
}

// L_1100005758_LineConfig
object line_configuration {
	name L_1100005758_LineConfig;
	conductor_A OHCond_4/0_AAC_I;
	conductor_B OHCond_4/0_AAC_I;
	conductor_C OHCond_4/0_AAC_I;
	conductor_N OHCond_NONE;
	spacing OHSpacing_VERTICAL_3P_52;
}

// L_1100105746_LineConfig
object line_configuration {
	name L_1100105746_LineConfig;
	conductor_A OHCond_4/0_AAC_I;
	conductor_B OHCond_4/0_AAC_I;
	conductor_C OHCond_4/0_AAC_I;
	conductor_N OHCond_NONE;
	spacing OHSpacing_HORIZONTAL_3P_52;
}

// L_1100125756_LineConfig
object line_configuration {
	name L_1100125756_LineConfig;
	conductor_A OHCond_4/0_AAC_I;
	conductor_B OHCond_4/0_AAC_I;
	conductor_C OHCond_4/0_AAC_I;
	conductor_N OHCond_NONE;
	spacing OHSpacing_HORIZONTAL_3P_52;
}

// L_1100125573_LineConfig
object line_configuration {
	name L_1100125573_LineConfig;
	conductor_A OHCond_4_ACSR_I;
	conductor_B OHCond_4_ACSR_I;
	conductor_C OHCond_NONE;
	conductor_N OHCond_NONE;
	spacing OHSpacing_HORIZONTAL_2P_88;
}

// L_1100203283_LineConfig
object line_configuration {
	name L_1100203283_LineConfig;
	conductor_A OHCond_4_ACSR_I;
	conductor_B OHCond_4_ACSR_I;
	conductor_C OHCond_NONE;
	conductor_N OHCond_NONE;
	spacing OHSpacing_HORIZONTAL_2P_88;
}

// L_1100125605_LineConfig
object line_configuration {
	name L_1100125605_LineConfig;
	conductor_A OHCond_397_AAC_I;
	conductor_B OHCond_397_AAC_I;
	conductor_C OHCond_397_AAC_I;
	conductor_N OHCond_NONE;
	spacing OHSpacing_VERTICAL_3P_52;
}

// L_1100005217_LineConfig
object line_configuration {
	name L_1100005217_LineConfig;
	conductor_A OHCond_397_AAC_I;
	conductor_B OHCond_397_AAC_I;
	conductor_C OHCond_397_AAC_I;
	conductor_N OHCond_NONE;
	spacing OHSpacing_VERTICAL_3P_52;
}

// L_1100093903_LineConfig
object line_configuration {
	name L_1100093903_LineConfig;
	conductor_A OHCond_4_ACSR_I;
	conductor_B OHCond_4_ACSR_I;
	conductor_C OHCond_NONE;
	conductor_N OHCond_NONE;
	spacing OHSpacing_HORIZONTAL_2P_52;
}

// L_1100017293_LineConfig
object line_configuration {
	name L_1100017293_LineConfig;
	conductor_A OHCond_4_ACSR_I;
	conductor_B OHCond_4_ACSR_I;
	conductor_C OHCond_4_ACSR_I;
	conductor_N OHCond_NONE;
	spacing OHSpacing_TRIANGULAR_3P_36;
}

// L_1100125583_LineConfig
object line_configuration {
	name L_1100125583_LineConfig;
	conductor_A OHCond_4_ACSR_I;
	conductor_B OHCond_4_ACSR_I;
	conductor_C OHCond_NONE;
	conductor_N OHCond_NONE;
	spacing OHSpacing_HORIZONTAL_2P_88;
}

// L_1100125708_LineConfig
object line_configuration {
	name L_1100125708_LineConfig;
	conductor_A OHCond_715_AAC_I;
	conductor_B OHCond_715_AAC_I;
	conductor_C OHCond_715_AAC_I;
	conductor_N OHCond_NONE;
	spacing OHSpacing_HORIZONTAL_3P_52;
}

// L_1100017285_LineConfig
object line_configuration {
	name L_1100017285_LineConfig;
	conductor_A OHCond_4_ACSR_I;
	conductor_B OHCond_4_ACSR_I;
	conductor_C OHCond_NONE;
	conductor_N OHCond_NONE;
	spacing OHSpacing_HORIZONTAL_2P_88;
}

// L_1100042680_LineConfig
object line_configuration {
	name L_1100042680_LineConfig;
	conductor_A OHCond_6_CU_I;
	conductor_B OHCond_6_CU_I;
	conductor_C OHCond_NONE;
	conductor_N OHCond_NONE;
	spacing OHSpacing_HORIZONTAL_2P_88;
}

// L_1100125647_LineConfig
object line_configuration {
	name L_1100125647_LineConfig;
	conductor_A OHCond_4_ACSR_I;
	conductor_B OHCond_4_ACSR_I;
	conductor_C OHCond_4_ACSR_I;
	conductor_N OHCond_NONE;
	spacing OHSpacing_HORIZONTAL_3P_52;
}

// L_1100125569_LineConfig
object line_configuration {
	name L_1100125569_LineConfig;
	conductor_A OHCond_4_ACSR_I;
	conductor_B OHCond_4_ACSR_I;
	conductor_C OHCond_NONE;
	conductor_N OHCond_NONE;
	spacing OHSpacing_HORIZONTAL_2P_88;
}

// L_1100005011_LineConfig
object line_configuration {
	name L_1100005011_LineConfig;
	conductor_A OHCond_4_ACSR_I;
	conductor_B OHCond_4_ACSR_I;
	conductor_C OHCond_4_ACSR_I;
	conductor_N OHCond_NONE;
	spacing OHSpacing_HORIZONTAL_3P_52;
}

// L_1100005008_LineConfig
object line_configuration {
	name L_1100005008_LineConfig;
	conductor_A OHCond_6_CU_I;
	conductor_B OHCond_6_CU_I;
	conductor_C OHCond_NONE;
	conductor_N OHCond_NONE;
	spacing OHSpacing_HORIZONTAL_2P_88;
}

// L_1100125614_LineConfig
object line_configuration {
	name L_1100125614_LineConfig;
	conductor_A OHCond_4_ACSR_I;
	conductor_B OHCond_4_ACSR_I;
	conductor_C OHCond_NONE;
	conductor_N OHCond_NONE;
	spacing OHSpacing_HORIZONTAL_2P_88;
}

// L_1100017299_LineConfig
object line_configuration {
	name L_1100017299_LineConfig;
	conductor_A OHCond_4_ACSR_I;
	conductor_B OHCond_4_ACSR_I;
	conductor_C OHCond_NONE;
	conductor_N OHCond_NONE;
	spacing OHSpacing_HORIZONTAL_2P_88;
}

// L_1100125574_LineConfig
object line_configuration {
	name L_1100125574_LineConfig;
	conductor_A OHCond_4_ACSR_I;
	conductor_B OHCond_4_ACSR_I;
	conductor_C OHCond_NONE;
	conductor_N OHCond_NONE;
	spacing OHSpacing_HORIZONTAL_2P_88;
}

// L_1100045312_LineConfig
...